data/projects/lehighauto_3mg/circuit_plusmg_3.dss
clear
set defaultbasefrequency=60
new object=circuit.lehigh basekv=115 pu=1.0001 phases=3 bus1=sourcebus angle=30 mvasc3=20000 mvasc1=21000
edit object=vsource.source basekv=115 bus1=sourcebus.1.2.3 pu=1.00 r1=0 x1=0.0001 r0=0 x0=0.0001
new object=vsource.secondsource basekv=4.16 bus1=680.1.2.3 pu=1.00 r1=0 x1=0.0001 r0=0 x0=0.0001
new object=transformer.sub phases=3 windings=2 xhl=0.008 buses=[sourcebus.1.2.3,650.1.2.3] conns=[delta,wye] kvs=[115,4.16] kvas=[5000,5000] %rs=[0.0005,0.0005]
new object=transformer.reg1 phases=1 bank=reg1 xhl=0.01 kvas=[1666,1666] buses=[650.1,rg60.1] kvs=[2.4,2.4] %loadloss=0.01
new object=regcontrol.reg1 transformer=reg1 winding=2 vreg=121 band=2 ptratio=20 ctprim=700 r=3 x=9
new object=transformer.reg2 phases=1 bank=reg1 xhl=0.01 kvas=[1666,1666] buses=[650.2,rg60.2] kvs=[2.4,2.4] %loadloss=0.01
new object=regcontrol.reg2 transformer=reg2 winding=2 vreg=121 band=2 ptratio=20 ctprim=700 r=3 x=9
new object=transformer.reg3 phases=1 bank=reg1 xhl=0.01 kvas=[1666,1666] buses=[650.3,rg60.3] kvs=[2.4,2.4] %loadloss=0.01
new object=regcontrol.reg3 transformer=reg3 winding=2 vreg=121 band=2 ptratio=20 ctprim=700 r=3 x=9
new object=transformer.xfm1 phases=3 windings=2 xhl=2 buses=[633.1.2.3,634.1.2.3] conns=[wye,wye] kvs=[4.16,0.480] kvas=[500,500] %rs=[0.55,0.55] xht=1 xlt=1
new object=linecode.mtx601 nphases=3 basefreq=60 rmatrix=[0.3465|0.1560,0.3375|0.1580,0.1535,0.3414] xmatrix=[1.0179|0.5017,1.0478|0.4236,0.3849,1.0348] units=mi
new object=linecode.mtx602 nphases=3 basefreq=60 rmatrix=[0.7526|0.1580,0.7475|0.1560,0.1535,0.7436] xmatrix=[1.1814|0.4236,1.1983|0.5017,0.3849,1.2112] units=mi
new object=linecode.mtx603 nphases=2 basefreq=60 rmatrix=[1.3238|0.2066,1.3294] xmatrix=[1.3569|0.4591,1.3471] units=mi
new object=linecode.mtx604 nphases=2 basefreq=60 rmatrix=[1.3238|0.2066,1.3294] xmatrix=[1.3569|0.4591,1.3471] units=mi
new object=linecode.mtx605 nphases=1 basefreq=60 rmatrix=[1.3292] xmatrix=[1.3475] units=mi
new object=linecode.mtx606 nphases=3 units=mi rmatrix=[0.791721|0.318476,0.781649|0.28345,0.318476,0.791721] xmatrix=[0.438352|0.0276838,0.396697|-0.0184204,0.0276838,0.438352] cmatrix=[383.948|0,383.948|0,0,383.948]
new object=linecode.mtx607 nphases=1 basefreq=60 rmatrix=[1.3425] xmatrix=[0.5124] cmatrix=[236] units=mi
new object=loadshape.solar_646_office_shape npts=8760 interval=1 useactual=yes mult=[0.0,0.0,0.0,0.0,0.0,0.0,0.0,0.0,67.71,158.376,153.57,100.753,53.475,52.761,52.515,34.261,0.948,0.0,0.0,0.0,0.0,0.0,0.0,0.0,0.0,0.0,0.0,0.0,0.0,0.0,0.0,0.0,76.445,111.993,246.736,275.783,327.379,209.224,117.68,53.017,2.844,0.0,0.0,0.0,0.0,0.0,0.0,0.0,0.0,0.0,0.0,0.0,0.0,0.0,0.0,0.0,97.096,197.24,269.554,80.778,44.282,13.068,43.402,56.741,2.708,0.0,0.0,0.0,0.0,0.0,0.0,0.0,0.0,0.0,0.0,0.0,0.0,0.0,0.0,0.0,4.74,63.78300000000001,62.835,271.044,278.018,311.872,192.432,85.044,23.765999999999995,0.0,0.0,0.0,0.0,0.0,0.0,0.0,0.0,0.0,0.0,0.0,0.0,0.0,0.0,0.0,117.409,177.536,240.1,335.301,248.496,309.638,181.328,88.768,7.921999999999999,0.0,0.0,0.0,0.0,0.0,0.0,0.0,0.0,0.0,0.0,0.0,0.0,0.0,0.0,0.0,45.095000000000006,47.262,29.318,82.606,16.115,150.046,85.518,26.001,0.406,0.0,0.0,0.0,0.0,0.0,0.0,0.0,0.0,0.0,0.0,0.0,0.0,0.0,0.0,0.0,69.674,16.183,42.657,78.815,53.356,92.018,136.571,130.68,14.218999999999998,0.0,0.0,0.0,0.0,0.0,0.0,0.0,0.0,0.0,0.0,0.0,0.0,0.0,0.0,0.0,122.081,209.176,224.341,137.812,130.112,130.396,145.453,140.062,31.891,0.0,0.0,0.0,0.0,0.0,0.0,0.0,0.0,0.0,0.0,0.0,0.0,0.0,0.0,0.0,113.14400000000002,125.738,142.801,243.079,237.527,304.154,159.051,87.143,9.75,0.0,0.0,0.0,0.0,0.0,0.0,0.0,0.0,0.0,0.0,0.0,0.0,0.0,0.0,0.0,0.948,9.75,12.865,47.871,44.079,44.689,34.735,121.54,18.959,0.0,0.0,0.0,0.0,0.0,0.0,0.0,0.0,0.0,0.0,0.0,0.0,0.0,0.0,0.0,6.162,37.037,95.878,230.959,177.333,156.546,119.77899999999998,68.997,8.531,0.0,0.0,0.0,0.0,0.0,0.0,0.0,0.0,0.0,0.0,0.0,0.0,0.0,0.0,2.37,40.423,92.492,200.49,202.25000000000003,121.607,213.896,102.919,51.324,7.245,0.0,0.0,0.0,0.0,0.0,0.0,0.0,0.0,0.0,0.0,0.0,0.0,0.0,0.0,1.151,72.247,197.984,363.875,366.452,311.275,264.546,261.926,169.817,43.064,0.0,0.0,0.0,0.0,0.0,0.0,0.0,0.0,0.0,0.0,0.0,0.0,0.0,0.0,0.0,3.589,13.068,62.56400000000001,126.61799999999998,180.989,287.599,259.453,161.895,40.423,0.0,0.0,0.0,0.0,0.0,0.0,0.0,0.0,0.0,0.0,0.0,0.0,0.0,0.0,20.99,150.655,222.458,232.454,134.479,145.147,141.328,151.955,148.266,50.105,0.0,0.0,0.0,0.0,0.0,0.0,0.0,0.0,0.0,0.0,0.0,0.0,0.0,0.0,6.094,102.31,207.715,224.52,163.478,147.956,150.459,125.467,76.783,43.47,0.0,0.0,0.0,0.0,0.0,0.0,0.0,0.0,0.0,0.0,0.0,0.0,0.0,0.0,6.365,128.649,252.356,336.79,382.0199999999999,327.785,64.595,84.705,73.601,13.271,0.0,0.0,0.0,0.0,0.0,0.0,0.0,0.0,0.0,0.0,0.0,0.0,0.0,0.0,0.0,131.087,45.23,85.518,138.67,121.133,103.52899999999998,77.528,26.001,4.13,0.0,0.0,0.0,0.0,0.0,0.0,0.0,0.0,0.0,0.0,0.0,0.0,0.0,0.0,15.032,133.863,257.976,347.827,394.208,399.083,361.775,225.542,78.476,16.995,0.0,0.0,0.0,0.0,0.0,0.0,0.0,0.0,0.0,0.0,0.0,0.0,0.0,0.0,15.099,133.728,257.028,345.186,394.886,399.896,364.754,286.482,172.458,47.533,0.0,0.0,0.0,0.0,0.0,0.0,0.0,0.0,0.0,0.0,0.0,0.0,0.0,0.0,3.047,132.983,249.647,302.439,306.096,200.57,169.193,132.095,134.986,48.887,0.0,0.0,0.0,0.0,0.0,0.0,0.0,0.0,0.0,0.0,0.0,0.0,0.0,0.0,4.198,127.769,224.992,235.044,165.57,142.532,141.672,150.324,143.197,52.205,0.0,0.0,0.0,0.0,0.0,0.0,0.0,0.0,0.0,0.0,0.0,0.0,0.0,0.0,7.921999999999999,78.476,191.484,149.639,283.638,291.018,243.147,146.322,31.620999999999995,6.635999999999999,0.0,0.0,0.0,0.0,0.0,0.0,0.0,0.0,0.0,0.0,0.0,0.0,0.0,0.0,7.245,152.077,279.033,368.072,412.96400000000006,416.0110000000001,381.886,307.404,192.974,48.48,0.0,0.0,0.0,0.0,0.0,0.0,0.0,0.0,0.0,0.0,0.0,0.0,0.0,0.0,0.0,37.918,27.964,47.871,52.47500000000001,48.00600000000001,33.381,33.99,171.713,51.663,0.0,0.0,0.0,0.0,0.0,0.0,0.0,0.0,0.0,0.0,0.0,0.0,0.0,0.0,17.875,3.792,103.664,72.518,99.737,138.535,165.484,70.96,53.965,19.027,0.0,0.0,0.0,0.0,0.0,0.0,0.0,0.0,0.0,0.0,0.0,0.0,0.0,0.0,0.0,5.011,15.98,33.855,33.855,46.585,56.877,56.40299999999999,43.199,2.37,0.0,0.0,0.0,0.0,0.0,0.0,0.0,0.0,0.0,0.0,0.0,0.0,0.0,0.0,20.042,143.681,272.371,276.388,251.166,190.805,200.877,173.239,165.824,64.325,0.0,0.0,0.0,0.0,0.0,0.0,0.0,0.0,0.0,0.0,0.0,0.0,0.0,0.0,25.662,145.509,101.497,101.633,132.576,137.547,91.425,72.585,17.875,4.13,0.0,0.0,0.0,0.0,0.0,0.0,0.0,0.0,0.0,0.0,0.0,0.0,0.0,0.0,31.282000000000004,157.765,284.112,376.401,386.807,324.107,300.314,300.657,203.198,71.434,0.0,0.0,0.0,0.0,0.0,0.0,0.0,0.0,0.0,0.0,0.0,0.0,0.0,0.0,27.693,147.676,180.921,100.414,318.035,319.862,379.922,308.081,200.151,71.84,0.0,0.0,0.0,0.0,0.0,0.0,0.0,0.0,0.0,0.0,0.0,0.0,0.0,0.0,4.807,44.553,136.842,324.873,358.592,374.911,345.796,284.653,187.354,68.861,0.0,0.0,0.0,0.0,0.0,0.0,0.0,0.0,0.0,0.0,0.0,0.0,0.0,0.0,2.099,31.891,0.0,3.25,2.573,32.839,1.896,5.417,172.864,64.934,0.0,0.0,0.0,0.0,0.0,0.0,0.0,0.0,0.0,0.0,0.0,0.0,0.0,0.0,0.0,3.453,9.005,21.532,46.38100000000001,43.876,43.876,54.236,34.126,11.037,0.0,0.0,0.0,0.0,0.0,0.0,0.0,0.0,0.0,0.0,0.0,0.0,0.0,0.0,39.272,166.432,273.369,271.483,215.999,144.718,146.613,118.975,119.579,79.695,0.0,0.0,0.0,0.0,0.0,0.0,0.0,0.0,0.0,0.0,0.0,0.0,0.0,0.0,19.907,100.27899999999998,161.107,161.428,79.771,66.008,61.661,60.292,62.977,77.121,0.0,0.0,0.0,0.0,0.0,0.0,0.0,0.0,0.0,0.0,0.0,0.0,0.0,0.0,32.839,151.603,268.945,349.384,393.261,378.145,300.541,299.956,195.885,77.934,0.0,0.0,0.0,0.0,0.0,0.0,0.0,0.0,0.0,0.0,0.0,0.0,0.0,0.0,26.542,119.915,160.067,352.702,333.337,205.297,259.465,165.89,204.485,80.575,0.0,0.0,0.0,0.0,0.0,0.0,0.0,0.0,0.0,0.0,0.0,0.0,0.0,0.0,19.568,94.11700000000002,150.655,182.07300000000004,209.766,129.462,107.998,68.116,164.468,64.663,0.0,0.0,0.0,0.0,0.0,0.0,0.0,0.0,0.0,0.0,0.0,0.0,0.0,0.0,8.87,50.918,139.889,258.653,313.092,313.702,328.665,236.173,110.571,44.486,0.0,0.0,0.0,0.0,0.0,0.0,0.0,0.0,0.0,0.0,0.0,0.0,0.0,0.0,33.313,130.816,192.364,303.477,244.704,223.037,31.756,196.901,78.341,31.214,0.0,0.0,0.0,0.0,0.0,0.0,0.0,0.0,0.0,0.0,0.0,0.0,0.0,0.0,48.68399999999999,187.354,272.254,261.171,197.1,139.957,134.25,108.152,110.505,87.414,0.0,0.0,0.0,0.0,0.0,0.0,0.0,0.0,0.0,0.0,0.0,0.0,0.0,0.0,17.943,81.32,161.215,62.7,98.586,121.878,161.727,94.15600000000002,97.223,101.697,0.0,0.0,0.0,0.0,0.0,0.0,0.0,0.0,0.0,0.0,0.0,0.0,0.0,0.0,56.267,202.318,330.358,381.2869999999999,390.184,286.464,298.866,298.169,181.26,77.393,0.0,0.0,0.0,0.0,0.0,0.0,0.0,0.0,0.0,0.0,0.0,0.0,0.0,0.0,6.228999999999999,35.819,6.162,44.282,139.212,50.30899999999999,46.585,28.303,18.823,85.382,0.0,0.0,0.0,0.0,0.0,0.0,0.0,0.0,0.0,0.0,0.0,0.0,0.0,0.0,49.56400000000001,38.798,76.445,82.809,98.044,154.244,158.78,186.948,102.649,44.824,0.0,0.0,0.0,0.0,0.0,0.0,0.0,0.0,0.0,0.0,0.0,0.0,0.0,0.0,16.995,66.559,156.072,290.138,418.17800000000005,370.307,346.066,332.931,225.61000000000004,100.482,0.0,0.0,0.0,0.0,0.0,0.0,0.0,0.0,0.0,0.0,0.0,0.0,0.0,0.0,9.953,39.001,127.363,167.041,337.941,359.3380000000001,183.562,151.197,169.614,76.919,0.0,0.0,0.0,0.0,0.0,0.0,0.0,0.0,0.0,0.0,0.0,0.0,0.0,0.0,52.746,156.884,265.559,319.764,245.179,283.271,216.032,183.969,140.972,62.96999999999999,0.0,0.0,0.0,0.0,0.0,0.0,0.0,0.0,0.0,0.0,0.0,0.0,0.0,0.0,42.183,147.066,224.053,238.373,175.478,145.649,143.185,155.68,157.686,110.909,0.0,0.0,0.0,0.0,0.0,0.0,0.0,0.0,0.0,0.0,0.0,0.0,0.0,0.0,59.585,188.167,240.499,227.695,148.437,141.915,152.236,145.826,155.165,103.393,6.228999999999999,0.0,0.0,0.0,0.0,0.0,0.0,0.0,0.0,0.0,0.0,0.0,0.0,0.0,59.111,183.698,296.638,376.401,417.9069999999999,426.43799999999993,328.733,250.866,27.829000000000004,11.917,0.0,0.0,0.0,0.0,0.0,0.0,0.0,0.0,0.0,0.0,0.0,0.0,0.0,0.0,60.262,188.23400000000004,303.138,382.292,424.407,430.027,398.406,333.608,234.548,112.534,9.547,0.0,0.0,0.0,0.0,0.0,0.0,0.0,0.0,0.0,0.0,0.0,0.0,0.0,65.814,180.312,237.866,274.632,331.712,300.362,250.866,157.155,88.7,41.439,0.271,0.0,0.0,0.0,0.0,0.0,0.0,0.0,0.0,0.0,0.0,0.0,0.0,0.0,21.803,66.965,103.935,70.148,209.021,217.75600000000003,249.512,134.675,106.77899999999998,49.496,1.557,0.0,0.0,0.0,0.0,0.0,0.0,0.0,0.0,0.0,0.0,0.0,0.0,0.0,17.266,50.444,60.53300000000001,114.498,144.223,186.948,278.018,227.777,198.797,98.044,7.853999999999999,0.0,0.0,0.0,0.0,0.0,0.0,0.0,0.0,0.0,0.0,0.0,0.0,0.0,77.866,167.647,168.748,103.057,70.802,88.167,89.174,101.574,100.604,93.372,7.921999999999999,0.0,0.0,0.0,0.0,0.0,0.0,0.0,0.0,0.0,0.0,0.0,0.0,0.0,78.408,213.761,329.612,386.764,398.298,299.339,316.563,313.897,250.798,125.941,16.454,0.0,0.0,0.0,0.0,0.0,0.0,0.0,0.0,0.0,0.0,0.0,0.0,0.0,75.294,202.521,244.569,294.201,429.147,425.761,179.5,60.668,217.079,107.795,13.407,0.0,0.0,0.0,0.0,0.0,0.0,0.0,0.0,0.0,0.0,0.0,0.0,0.0,6.703,74.346,354.124,166.567,160.541,172.661,171.577,147.27,69.132,27.897,0.948,0.0,0.0,0.0,0.0,0.0,0.0,0.0,0.0,0.0,0.0,0.0,0.0,0.0,5.417,128.514,254.319,401.32700000000006,407.707,352.336,319.075,321.289,291.831,148.827,23.699,0.0,0.0,0.0,0.0,0.0,0.0,0.0,0.0,0.0,0.0,0.0,0.0,0.0,79.221,195.005,359.405,415.874,425.3550000000001,335.844,269.012,228.319,147.134,142.868,23.834,0.0,0.0,0.0,0.0,0.0,0.0,0.0,0.0,0.0,0.0,0.0,0.0,0.0,2.234,164.603,255.945,281.674,350.428,291.779,232.062,199.176,195.824,122.691,15.843999999999998,0.0,0.0,0.0,0.0,0.0,0.0,0.0,0.0,0.0,0.0,0.0,0.0,0.0,45.163,9.75,13.474,148.015,146.254,127.769,113.888,52.543,70.689,36.767,2.844,0.0,0.0,0.0,0.0,0.0,0.0,0.0,0.0,0.0,0.0,0.0,0.0,0.0,105.425,139.889,257.637,281.81,399.287,273.955,251.137,177.942,113.482,36.022,4.13,0.0,0.0,0.0,0.0,0.0,0.0,0.0,0.0,0.0,0.0,0.0,0.0,0.0,64.257,142.327,212.271,271.45,294.404,388.52,420.417,311.399,266.846,140.295,24.985,0.0,0.0,0.0,0.0,0.0,0.0,0.0,0.0,0.0,0.0,0.0,0.0,0.0,103.461,239.897,353.38,415.878,427.457,325.953,332.77,340.864,183.901,137.113,25.324,0.0,0.0,0.0,0.0,0.0,0.0,0.0,0.0,0.0,0.0,0.0,0.0,0.0,0.339,57.28300000000001,38.053,153.499,71.028,118.628,366.719,324.332,221.886,102.175,18.282,0.0,0.0,0.0,0.0,0.0,0.0,0.0,0.0,0.0,0.0,0.0,0.0,0.0,0.745,103.664,11.443,30.334,49.496,55.59,36.97,90.258,33.381,85.518,13.407,0.0,0.0,0.0,0.0,0.0,0.0,0.0,0.0,0.0,0.0,0.0,0.0,3.995,2.167,17.808,33.246,68.793,166.77,69.945,54.574,36.767,30.74,29.048,4.13,0.0,0.0,0.0,0.0,0.0,0.0,0.0,0.0,0.0,0.0,0.0,0.0,11.511,119.915,171.98,181.02,99.604,108.115,112.725,121.50700000000002,100.211,159.186,110.909,23.765999999999995,0.0,0.0,0.0,0.0,0.0,0.0,0.0,0.0,0.0,0.0,0.0,0.0,4.807,45.569,179.974,203.334,295.216,429.96,473.963,446.198,383.436,289.867,153.499,31.620999999999995,0.0,0.0,0.0,0.0,0.0,0.0,0.0,0.0,0.0,0.0,0.0,0.0,0.948,35.548,127.904,211.865,319.524,252.356,221.954,420.0590000000001,378.838,280.726,151.061,31.620999999999995,0.0,0.0,0.0,0.0,0.0,0.0,0.0,0.0,0.0,0.0,0.0,0.0,13.948000000000002,78.273,196.427,291.356,327.378,319.185,354.419,264.232,195.208,174.083,70.215,16.047,0.0,0.0,0.0,0.0,0.0,0.0,0.0,0.0,0.0,0.0,0.0,0.0,8.667,13.407,56.538,93.237,165.958,126.212,232.787,110.36799999999998,241.45400000000004,82.336,51.392,10.292,0.0,0.0,0.0,0.0,0.0,0.0,0.0,0.0,0.0,0.0,0.0,0.0,0.0,32.365,74.21,145.171,295.284,370.329,332.186,290.815,71.028,52.543,23.562999999999995,7.245,0.0,0.0,0.0,0.0,0.0,0.0,0.0,0.0,0.0,0.0,0.0,0.0,7.99,32.569,38.324,53.491,125.873,54.84499999999999,162.911,143.207,176.724,250.007,163.182,38.933,0.0,0.0,0.0,0.0,0.0,0.0,0.0,0.0,0.0,0.0,0.0,0.0,25.391,155.598,159.289,120.318,53.997,53.008,52.463,52.493,54.603,66.411,79.864,38.392,0.0,0.0,0.0,0.0,0.0,0.0,0.0,0.0,0.0,0.0,0.0,0.0,26.272,155.733,308.149,360.157,360.615,267.413,265.07,261.121,264.143,281.81,184.51,44.147,0.0,0.0,0.0,0.0,0.0,0.0,0.0,0.0,0.0,0.0,0.0,0.0,28.777,159.66,302.529,362.836,368.004,284.694,281.327,282.185,290.294,299.143,172.458,43.267,0.0,0.0,0.0,0.0,0.0,0.0,0.0,0.0,0.0,0.0,0.0,0.0,28.912,153.973,248.767,314.581,377.699,372.451,289.799,242.876,159.593,62.96999999999999,96.148,26.542,0.0,0.0,0.0,0.0,0.0,0.0,0.0,0.0,0.0,0.0,0.0,0.0,28.506,145.577,277.679,382.29100000000005,403.778,353.41,312.985,318.195,325.816,288.648,162.301,36.293,0.0,0.0,0.0,0.0,0.0,0.0,0.0,0.0,0.0,0.0,0.0,0.0,0.339,21.667,26.542,40.017,46.178,112.873,141.243,110.164,65.205,44.689,63.106,17.266,0.0,0.0,0.0,0.0,0.0,0.0,0.0,0.0,0.0,0.0,0.0,0.0,6.703,10.427,125.941,142.394,247.277,301.568,265.694,230.20400000000004,186.076,165.28,111.315,28.303,0.0,0.0,0.0,0.0,0.0,0.0,0.0,0.0,0.0,0.0,0.0,0.0,9.953,101.633,214.4,223.935,187.41,134.71,145.886,154.621,165.49,160.445,151.735,52.746,0.0,0.0,0.0,0.0,0.0,0.0,0.0,0.0,0.0,0.0,0.0,0.0,40.355,173.609,315.19,424.543,458.638,399.885,370.431,375.66,387.56200000000007,309.774,176.046,51.257,0.0,0.0,0.0,0.0,0.0,0.0,0.0,0.0,0.0,0.0,0.0,0.0,41.032,169.208,301.716,405.109,444.452,415.558,358.784,362.091,370.697,299.346,170.359,50.241,0.0,0.0,0.0,0.0,0.0,0.0,0.0,0.0,0.0,0.0,0.0,0.0,22.141,167.515,299.346,396.646,434.585,407.013,344.675,356.056,368.652,291.898,168.26,50.986,0.0,0.0,0.0,0.0,0.0,0.0,0.0,0.0,0.0,0.0,0.0,0.0,42.861,127.295,216.74,255.267,287.497,322.233,309.638,194.328,211.052,154.853,63.30899999999999,9.412,0.0,0.0,0.0,0.0,0.0,0.0,0.0,0.0,0.0,0.0,0.0,0.0,13.813,54.913,98.18,265.695,311.06,424.413,438.627,388.61800000000005,102.175,199.203,173.067,52.34,0.0,0.0,0.0,0.0,0.0,0.0,0.0,0.0,0.0,0.0,0.0,0.0,47.465,176.385,265.153,325.071,199.271,341.224,291.742,224.919,232.895,236.44,164.603,49.699,0.0,0.0,0.0,0.0,0.0,0.0,0.0,0.0,0.0,0.0,0.0,0.0,36.699,132.035,215.454,171.645,110.706,214.1,222.225,202.995,136.842,69.809,45.97500000000001,34.6,0.0,0.0,0.0,0.0,0.0,0.0,0.0,0.0,0.0,0.0,0.0,0.0,16.115,46.043,158.374,350.332,485.591,479.347,400.709,231.907,144.426,256.147,145.306,36.631,0.0,0.0,0.0,0.0,0.0,0.0,0.0,0.0,0.0,0.0,0.0,0.0,50.783,190.943,275.716,429.079,475.496,453.3730000000001,394.3419999999999,402.779,401.88,321.014,190.604,60.194,0.0,0.0,0.0,0.0,0.0,0.0,0.0,0.0,0.0,0.0,0.0,0.0,55.929,183.291,260.887,332.863,462.931,465.788,435.814,374.375,363.39,303.206,179.161,59.246,0.0,0.0,0.0,0.0,0.0,0.0,0.0,0.0,0.0,0.0,0.0,0.0,60.262,195.005,327.176,365.995,363.56200000000007,264.687,282.006,283.334,294.632,315.529,188.57300000000004,61.27799999999999,0.0,0.0,0.0,0.0,0.0,0.0,0.0,0.0,0.0,0.0,0.0,0.0,6.5,80.575,200.828,192.026,241.048,174.828,222.969,210.78200000000004,145.238,97.57,79.627,33.99,0.0,0.0,0.0,0.0,0.0,0.0,0.0,0.0,0.0,0.0,0.0,0.0,13.948000000000002,22.209,61.481,71.366,58.02799999999999,155.124,212.271,168.801,236.647,106.643,64.054,29.522,0.0,0.0,0.0,0.0,0.0,0.0,0.0,0.0,0.0,0.0,0.0,0.0,8.735,52.882,144.764,208.073,237.85400000000004,158.765,157.099,144.251,157.905,167.544,184.984,62.429,0.0,0.0,0.0,0.0,0.0,0.0,0.0,0.0,0.0,0.0,0.0,0.0,66.153,195.479,319.727,376.702,402.44,305.22,330.976,335.915,340.872,308.623,187.083,63.918,0.0,0.0,0.0,0.0,0.0,0.0,0.0,0.0,0.0,0.0,0.0,0.0,68.455,196.901,319.728,414.01,430.8690000000001,360.8,341.366,338.547,337.919,303.68,183.156,62.429,0.0,0.0,0.0,0.0,0.0,0.0,0.0,0.0,0.0,0.0,0.0,0.0,1.286,154.515,153.093,310.248,362.723,339.228,69.538,242.131,26.475,149.572,60.53300000000001,55.59,0.0,0.0,0.0,0.0,0.0,0.0,0.0,0.0,0.0,0.0,0.0,0.0,20.313,71.096,113.008,230.959,350.603,402.875,411.474,357.509,312.685,218.162,117.003,37.511,0.0,0.0,0.0,0.0,0.0,0.0,0.0,0.0,0.0,0.0,0.0,0.0,70.012,191.146,306.659,396.578,451.897,471.208,428.437,332.728,380.734,290.138,177.197,62.632,0.0,0.0,0.0,0.0,0.0,0.0,0.0,0.0,0.0,0.0,0.0,0.0,69.538,187.219,299.549,335.527,322.773,240.28800000000004,243.707,221.697,229.179,228.002,176.385,63.174,0.0,0.0,0.0,0.0,0.0,0.0,0.0,0.0,0.0,0.0,0.0,1.7600000000000002,70.486,189.318,237.193,232.858,163.641,168.52,134.611,78.472,89.55,158.52,124.18,47.736,0.0,0.0,0.0,0.0,0.0,0.0,0.0,0.0,0.0,0.0,0.0,2.979,69.403,184.713,255.606,357.036,439.439,460.632,315.868,211.797,305.644,280.591,171.442,63.648,0.0,0.0,0.0,0.0,0.0,0.0,0.0,0.0,0.0,0.0,0.0,3.182,75.091,194.73400000000004,259.601,294.065,415.943,430.0810000000001,417.298,351.023,316.68,152.145,80.372,19.771,0.0,0.0,0.0,0.0,0.0,0.0,0.0,0.0,0.0,0.0,0.0,2.979,67.913,168.666,236.308,220.193,243.35,420.114,435.03800000000007,387.213,346.097,272.127,89.039,5.62,0.0,0.0,0.0,0.0,0.0,0.0,0.0,0.0,0.0,0.0,0.0,1.422,17.063,49.22500000000001,97.909,156.546,171.239,336.587,320.269,249.85,182.14,165.416,92.424,33.11,0.0,0.0,0.0,0.0,0.0,0.0,0.0,0.0,0.0,0.0,0.0,0.0,3.25,92.56,108.268,118.086,148.082,211.526,138.806,115.852,204.485,89.445,51.93399999999999,11.578,2.573,0.0,0.0,0.0,0.0,0.0,0.0,0.0,0.0,0.0,0.0,8.125,95.607,148.082,302.678,306.087,276.312,213.974,214.078,186.36,190.356,193.728,190.798,79.424,3.995,0.0,0.0,0.0,0.0,0.0,0.0,0.0,0.0,0.0,0.0,8.396,22.277,27.49,93.101,239.76900000000003,257.819,207.178,163.408,158.043,167.709,163.114,174.72,76.242,4.13,0.0,0.0,0.0,0.0,0.0,0.0,0.0,0.0,0.0,0.0,8.396,88.903,205.907,262.377,339.093,359.60800000000006,376.198,97.299,83.148,61.549,123.91,37.308,79.627,6.839,0.0,0.0,0.0,0.0,0.0,0.0,0.0,0.0,0.0,0.0,10.969,104.68,242.809,370.239,414.826,419.632,323.131,338.002,340.028,343.332,336.722,210.44300000000004,83.148,7.516,0.0,0.0,0.0,0.0,0.0,0.0,0.0,0.0,0.0,0.0,12.12,99.602,115.987,229.537,227.98,310.789,324.128,417.54,378.161,391.708,306.456,190.943,79.492,5.958,0.0,0.0,0.0,0.0,0.0,0.0,0.0,0.0,0.0,0.0,0.0,6.906,23.834,60.804,98.112,101.768,153.77,132.78,161.15,42.793,10.63,48.413,16.928,7.042000000000001,0.0,0.0,0.0,0.0,0.0,0.0,0.0,0.0,0.0,0.0,3.859,27.558,101.768,111.857,129.394,135.827,141.243,209.157,125.331,135.556,90.054,56.267,15.302,0.0,0.0,0.0,0.0,0.0,0.0,0.0,0.0,0.0,0.0,0.0,8.396,80.575,231.907,290.744,284.312,206.868,195.929,196.367,166.213,168.865,171.43,172.232,82.403,7.651,0.0,0.0,0.0,0.0,0.0,0.0,0.0,0.0,0.0,0.0,15.235,71.366,154.717,160.067,209.416,123.149,121.121,120.79000000000002,120.891,133.804,146.473,152.551,42.387,8.193,0.0,0.0,0.0,0.0,0.0,0.0,0.0,0.0,0.0,0.0,15.775999999999998,100.753,47.194,27.219,97.84099999999998,383.917,312.076,126.076,215.995,55.996,181.599,10.021,85.518,8.735,0.0,0.0,0.0,0.0,0.0,0.0,0.0,0.0,0.0,0.0,2.641,26.136,42.116,69.471,106.77899999999998,90.664,130.816,161.421,188.505,155.462,149.436,68.726,32.569,1.964,0.0,0.0,0.0,0.0,0.0,0.0,0.0,0.0,0.0,0.0,15.775999999999998,111.654,239.22,352.973,436.121,459.5810000000001,361.0299999999999,374.024,203.672,241.92800000000005,58.02799999999999,213.219,88.971,10.089,0.0,0.0,0.0,0.0,0.0,0.0,0.0,0.0,0.0,0.0,16.86,112.263,247.887,370.645,279.778,425.558,432.668,155.259,422.579,349.587,224.865,180.177,92.492,8.735,0.0,0.0,0.0,0.0,0.0,0.0,0.0,0.0,0.0,0.0,16.86,117.071,247.751,362.047,423.3179999999999,445.389,344.604,365.163,377.652,397.901,328.326,157.561,91.68,10.224,0.0,0.0,0.0,0.0,0.0,0.0,0.0,0.0,0.0,0.0,19.094,110.977,230.35,282.504,274.663,204.902,196.289,200.835,177.937,182.701,184.635,189.512,87.685,10.36,0.0,0.0,0.0,0.0,0.0,0.0,0.0,0.0,0.0,0.0,18.756,91.747,202.397,215.7,162.234,133.515,131.092,139.467,141.917,159.946,13.474,65.679,30.876,1.219,0.0,0.0,0.0,0.0,0.0,0.0,0.0,0.0,0.0,0.0,17.808,85.789,135.42,76.106,105.831,274.226,389.537,373.4210000000001,324.941,216.74,155.936,44.892,20.313,0.068,0.0,0.0,0.0,0.0,0.0,0.0,0.0,0.0,0.0,0.0,17.063,71.57,120.185,133.389,96.148,238.542,129.056,140.905,134.337,100.753,65.679,90.122,44.689,5.891,0.0,0.0,0.0,0.0,0.0,0.0,0.0,0.0,0.0,0.0,18.485,74.21,122.352,281.471,197.24,323.722,260.278,336.926,327.582,340.379,252.423,173.135,88.633,11.511,0.0,0.0,0.0,0.0,0.0,0.0,0.0,0.0,0.0,0.0,19.501,76.716,131.425,257.569,333.743,357.645,295.352,68.997,87.278,87.481,43.064,73.195,36.699,5.146,0.0,0.0,0.0,0.0,0.0,0.0,0.0,0.0,0.0,0.0,5.958,30.47,41.439,77.664,165.822,216.469,294.201,418.719,320.675,424.475,336.858,222.766,98.586,13.271,0.0,0.0,0.0,0.0,0.0,0.0,0.0,0.0,0.0,0.0,23.834,124.113,251.001,332.648,342.152,256.301,237.85,240.29700000000005,215.773,231.361,222.918,68.32,35.006,5.281,0.0,0.0,0.0,0.0,0.0,0.0,0.0,0.0,0.0,0.0,11.985,46.449,239.04,246.88,210.82200000000003,162.288,179.135,172.518,182.219,177.745,196.951,192.11000000000004,105.357,15.099,0.0,0.0,0.0,0.0,0.0,0.0,0.0,0.0,0.0,0.0,25.798,129.394,259.939,380.666,470.992,509.528,471.411,425.838,435.717,438.288,348.301,230.214,103.935,15.912,0.0,0.0,0.0,0.0,0.0,0.0,0.0,0.0,0.0,0.0,25.798,102.445,163.52,272.94,273.278,154.718,237.324,196.021,157.629,109.623,251.611,65.137,34.126,5.62,0.0,0.0,0.0,0.0,0.0,0.0,0.0,0.0,0.0,0.0,7.651,31.620999999999995,72.856,122.962,249.444,170.494,159.39,139.618,125.67,221.548,181.328,130.139,67.372,15.506,0.0,0.0,0.0,0.0,0.0,0.0,0.0,0.0,0.0,0.0,28.032000000000004,131.222,256.418,367.124,442.418,493.336,499.341,432.749,435.941,410.323,331.509,218.501,102.784,16.724,0.0,0.0,0.0,0.0,0.0,0.0,0.0,0.0,0.0,0.0,30.062999999999995,128.92,248.361,350.806,419.396,343.358,393.802,411.813,370.984,411.407,300.972,188.844,94.59099999999998,19.094,0.0,0.0,0.0,0.0,0.0,0.0,0.0,0.0,0.0,0.0,14.558,50.444,57.486,161.624,213.422,121.404,150.926,176.52,205.568,274.632,178.078,85.45,46.788,10.766,0.0,0.0,0.0,0.0,0.0,0.0,0.0,0.0,0.0,0.0,29.995999999999995,127.363,236.691,266.199,205.033,184.581,181.154,154.792,146.696,124.716,98.454,112.903,102.175,20.787,0.0,0.0,0.0,0.0,0.0,0.0,0.0,0.0,0.0,0.0,30.199,126.483,242.605,340.582,409.443,453.5899999999999,466.087,466.726,429.946,388.588,312.144,213.761,100.61700000000002,17.943,0.0,0.0,0.0,0.0,0.0,0.0,0.0,0.0,0.0,0.0,29.251,128.175,243.079,338.618,407.954,450.408,482.773,478.0330000000001,449.179,342.681,312.144,187.828,93.982,20.652,0.0,0.0,0.0,0.0,0.0,0.0,0.0,0.0,0.0,0.0,29.725,93.30500000000002,239.694,337.061,328.665,465.304,485.21,479.184,448.309,354.666,257.908,150.994,73.398,18.485,0.0,0.0,0.0,0.0,0.0,0.0,0.0,0.0,0.0,0.0,27.355,97.503,211.12,296.503,368.81700000000006,411.136,378.161,381.305,268.132,240.236,230.214,138.264,93.982,21.464,0.0,0.0,0.0,0.0,0.0,0.0,0.0,0.0,0.0,0.0,2.9119999999999995,15.438,28.370999999999995,118.764,373.557,415.451,382.473,349.995,345.705,331.206,293.456,215.386,105.899,21.532,0.0,0.0,0.0,0.0,0.0,0.0,0.0,0.0,0.0,0.0,30.131,101.904,122.284,120.185,235.29300000000003,163.588,334.319,234.412,135.827,227.845,218.636,77.731,12.459,1.151,0.0,0.0,0.0,0.0,0.0,0.0,0.0,0.0,0.0,0.0,10.427,36.089,163.113,244.79,242.155,174.923,149.055,158.358,156.516,167.918,177.761,197.052,101.43,22.141,0.0,0.0,0.0,0.0,0.0,0.0,0.0,0.0,0.0,0.0,29.995999999999995,126.754,235.71,238.921,182.501,145.977,153.798,147.96,152.281,157.92,175.098,182.718,105.966,21.532,0.0,0.0,0.0,0.0,0.0,0.0,0.0,0.0,0.0,0.0,29.251,123.639,234.954,334.285,401.928,389.74,391.771,401.114,334.42,254.522,228.657,118.425,44.079,11.782,0.0,0.0,0.0,0.0,0.0,0.0,0.0,0.0,0.0,0.0,28.98,88.565,173.744,109.149,64.799,192.90600000000003,321.42,343.223,178.213,311.196,219.787,191.62,78.95,26.542,0.0,0.0,0.0,0.0,0.0,0.0,0.0,0.0,0.0,0.0,26.339,89.648,234.209,287.836,322.029,355.004,296.977,405.652,371.525,326.972,278.898,192.229,102.175,24.308,0.0,0.0,0.0,0.0,0.0,0.0,0.0,0.0,0.0,0.0,31.620999999999995,19.974,108.133,130.207,240.371,418.0419999999999,274.294,58.84,168.937,189.859,170.968,154.108,86.263,21.261,0.0,0.0,0.0,0.0,0.0,0.0,0.0,0.0,0.0,0.0,30.47,126.889,243.689,322.267,280.184,49.767,321.99,292.456,205.138,205.134,180.04100000000005,136.504,76.377,22.954,0.0,0.0,0.0,0.0,0.0,0.0,0.0,0.0,0.0,0.0,31.959,78.205,230.808,154.989,206.313,217.242,151.907,148.377,140.025,152.009,221.314,87.346,113.414,26.812999999999995,0.0,0.0,0.0,0.0,0.0,0.0,0.0,0.0,0.0,0.0,33.313,128.378,242.064,346.676,420.209,471.358,423.8130000000001,343.51,330.289,276.122,340.65,233.126,117.206,26.881,0.0,0.0,0.0,0.0,0.0,0.0,0.0,0.0,0.0,0.0,35.209,134.675,250.46000000000004,306.117,364.88999999999993,384.458,481.554,468.961,393.328,369.426,318.712,219.923,111.045,26.068,0.0,0.0,0.0,0.0,0.0,0.0,0.0,0.0,0.0,0.0,28.845,103.664,194.87,299.008,351.348,400.37,415.605,472.685,387.167,269.554,254.252,166.431,109.55500000000002,29.386,0.0,0.0,0.0,0.0,0.0,0.0,0.0,0.0,0.0,0.0,16.589,42.454,140.634,265.288,355.546,447.361,464.356,510.805,453.743,428.537,347.218,240.913,121.201,26.745999999999995,0.0,0.0,0.0,0.0,0.0,0.0,0.0,0.0,0.0,0.0,32.839,133.66,245.855,338.483,419.058,464.221,483.8560000000001,481.622,453.252,388.182,317.154,224.459,116.191,26.339,0.0,0.0,0.0,0.0,0.0,0.0,0.0,0.0,0.0,0.0,31.214,104.612,158.713,235.902,337.602,344.442,269.554,175.708,187.896,161.218,116.597,84.705,77.867,13.136,0.0,0.0,0.0,0.0,0.0,0.0,0.0,0.0,0.0,0.0,36.496,91.408,187.742,199.182,167.426,135.986,154.563,154.497,153.646,164.523,204.513,217.41700000000003,114.904,30.605,0.0,0.0,0.0,0.0,0.0,0.0,0.0,0.0,0.0,0.0,33.923,106.847,194.937,334.894,404.094,456.637,477.154,474.51900000000006,447.496,395.359,317.222,222.969,115.717,30.334,0.0,0.0,0.0,0.0,0.0,0.0,0.0,0.0,0.0,0.0,33.381,127.769,237.73,331.509,403.349,450.07,470.314,468.148,441.131,392.99,318.305,219.855,115.852,29.86,0.0,0.0,0.0,0.0,0.0,0.0,0.0,0.0,0.0,0.0,33.72,123.436,223.376,308.487,370.239,410.188,427.996,425.49000000000007,402.74,357.374,289.461,203.672,110.435,32.162,0.0,0.0,0.0,0.0,0.0,0.0,0.0,0.0,0.0,0.0,35.886,121.878,223.44300000000004,310.925,377.958,420.141,440.793,438.423,424.001,375.046,298.669,210.172,110.571,31.079000000000004,0.0,0.0,0.0,0.0,0.0,0.0,0.0,0.0,0.0,0.0,35.548,120.11799999999998,217.688,303.003,369.0199999999999,412.82900000000006,432.329,428.673,290.883,302.055,221.683,184.781,95.268,30.808,0.0,0.0,0.0,0.0,0.0,0.0,0.0,0.0,0.0,0.0,35.616,118.56,215.453,302.325,363.94900000000007,310.724,216.228,249.173,220.911,219.271,207.583,211.323,114.56600000000002,33.787,0.0,0.0,0.0,0.0,0.0,0.0,0.0,0.0,0.0,0.0,5.146,2.234,153.296,253.506,264.801,249.337,195.45900000000003,194.543,209.023,214.868,205.162,92.018,77.325,21.126,0.0,0.0,0.0,0.0,0.0,0.0,0.0,0.0,0.0,0.0,29.386,110.571,242.402,349.046,373.4210000000001,476.544,497.39900000000006,501.732,468.419,414.792,334.827,232.991,121.269,31.35,0.0,0.0,0.0,0.0,0.0,0.0,0.0,0.0,0.0,0.0,28.777,89.581,199.948,294.539,350.603,396.24,417.162,414.318,382.15600000000006,337.535,316.748,217.079,116.326,31.147,0.0,0.0,0.0,0.0,0.0,0.0,0.0,0.0,0.0,0.0,33.313,119.576,223.308,318.508,389.198,366.853,361.572,404.50000000000006,423.595,376.197,307.201,216.74,104.274,30.402,0.0,0.0,0.0,0.0,0.0,0.0,0.0,0.0,0.0,0.0,23.360000000000003,9.75,97.638,263.122,323.18,325.415,363.739,422.85,398.6770000000001,384.12,309.3,157.9,116.191,33.99,0.0,0.0,0.0,0.0,0.0,0.0,0.0,0.0,0.0,0.0,29.318,98.857,186.271,116.191,175.234,267.049,90.19,66.017,52.40800000000001,194.26,265.695,203.198,28.574,8.599,0.0,0.0,0.0,0.0,0.0,0.0,0.0,0.0,0.0,0.0,31.214,58.637,81.455,112.196,111.654,419.0179999999999,217.35,392.448,146.796,46.38100000000001,92.086,186.88,97.164,34.464,0.0,0.0,0.0,0.0,0.0,0.0,0.0,0.0,0.0,0.0,32.907,115.445,213.964,276.248,285.776,218.625,221.452,162.97,100.34999999999998,131.174,174.627,151.878,116.191,34.464,0.0,0.0,0.0,0.0,0.0,0.0,0.0,0.0,0.0,0.0,27.829000000000004,114.024,215.386,309.029,267.32,349.113,117.003,40.897,133.728,233.668,256.554,200.287,111.451,34.126,0.0,0.0,0.0,0.0,0.0,0.0,0.0,0.0,0.0,0.0,29.522,104.951,193.854,266.846,344.171,385.541,381.953,376.739,378.906,297.925,216.672,23.360000000000003,80.575,27.761,0.0,0.0,0.0,0.0,0.0,0.0,0.0,0.0,0.0,0.0,26.542,41.168,25.527,75.768,89.445,146.931,190.73900000000003,191.213,143.139,208.683,208.479,48.21,36.428,17.808,0.0,0.0,0.0,0.0,0.0,0.0,0.0,0.0,0.0,0.0,10.766,39.34,178.484,104.544,231.23,294.268,301.378,253.304,249.647,330.764,219.787,142.394,79.966,20.652,0.0,0.0,0.0,0.0,0.0,0.0,0.0,0.0,0.0,0.0,26.61,67.168,154.988,212.136,324.196,327.446,373.692,379.583,324.128,316.68,281.539,221.886,109.487,31.687999999999995,0.0,0.0,0.0,0.0,0.0,0.0,0.0,0.0,0.0,0.0,26.272,86.33,190.536,310.533,314.678,296.858,253.571,284.182,268.856,276.755,271.849,205.094,127.024,30.673,0.0,0.0,0.0,0.0,0.0,0.0,0.0,0.0,0.0,0.0,26.61,123.165,236.985,266.556,243.801,206.172,201.488,207.693,213.889,234.733,245.256,178.01,92.627,30.673,0.0,0.0,0.0,0.0,0.0,0.0,0.0,0.0,0.0,0.0,25.256,118.357,230.959,327.378,397.865,441.944,417.23,424.204,369.9,330.019,273.481,191.01,107.795,26.542,0.0,0.0,0.0,0.0,0.0,0.0,0.0,0.0,0.0,0.0,27.084,106.982,166.567,240.845,286.279,329.872,129.123,113.008,321.285,106.576,63.918,79.763,9.547,0.0,0.0,0.0,0.0,0.0,0.0,0.0,0.0,0.0,0.0,0.0,25.933,117.883,230.688,331.17,406.599,454.877,320.472,412.82900000000006,415.469,321.149,308.961,231.501,98.857,26.475,0.0,0.0,0.0,0.0,0.0,0.0,0.0,0.0,0.0,0.0,24.985,115.784,226.829,320.066,390.484,356.358,262.309,312.956,316.68,294.065,264.476,208.479,90.325,30.537,0.0,0.0,0.0,0.0,0.0,0.0,0.0,0.0,0.0,0.0,26.745999999999995,113.347,220.126,310.316,378.5,424.543,348.098,280.32,297.586,389.198,246.736,223.85,87.414,33.246,0.0,0.0,0.0,0.0,0.0,0.0,0.0,0.0,0.0,0.0,27.423,112.399,217.07800000000003,308.42,385.284,409.583,299.956,310.483,198.797,302.664,320.811,228.318,119.102,30.876,0.0,0.0,0.0,0.0,0.0,0.0,0.0,0.0,0.0,0.0,25.324,112.534,220.125,265.27,202.534,121.68,159.591,160.716,160.688,191.71,224.86,225.001,117.951,29.792,0.0,0.0,0.0,0.0,0.0,0.0,0.0,0.0,0.0,0.0,24.376,114.295,225.068,315.529,382.63000000000005,427.657,411.068,439.032,438.423,391.161,270.637,205.026,121.743,31.282000000000004,0.0,0.0,0.0,0.0,0.0,0.0,0.0,0.0,0.0,0.0,21.6,81.862,161.082,240.642,227.98,289.664,318.644,296.435,230.147,183.562,143.004,89.107,49.158,21.396,0.0,0.0,0.0,0.0,0.0,0.0,0.0,0.0,0.0,0.0,0.0,9.141,28.777,77.325,84.773,67.304,72.45,69.945,111.248,61.27799999999999,166.025,160.744,73.736,5.011,0.0,0.0,0.0,0.0,0.0,0.0,0.0,0.0,0.0,0.0,24.579,15.912,67.304,58.43399999999999,212.61000000000004,200.151,135.014,55.72500000000001,177.875,218.704,299.482,208.615,111.383,31.687999999999995,0.0,0.0,0.0,0.0,0.0,0.0,0.0,0.0,0.0,0.0,22.818,101.227,198.797,292.101,355.614,404.026,434.157,436.053,413.1,366.244,293.862,158.239,3.115,14.964,0.0,0.0,0.0,0.0,0.0,0.0,0.0,0.0,0.0,0.0,23.428,100.82,185.864,246.533,309.571,319.389,71.908,110.503,187.354,165.89,300.295,206.313,100.956,30.74,0.0,0.0,0.0,0.0,0.0,0.0,0.0,0.0,0.0,0.0,10.224,42.725,148.286,224.108,205.477,105.312,79.247,114.749,159.435,160.001,185.33,191.469,93.575,30.199,0.0,0.0,0.0,0.0,0.0,0.0,0.0,0.0,0.0,0.0,22.209,101.294,203.266,296.3,366.447,415.199,438.627,448.58,424.136,376.062,306.998,213.016,112.602,28.98,0.0,0.0,0.0,0.0,0.0,0.0,0.0,0.0,0.0,0.0,0.0,6.026,167.921,270.028,372.406,428.47,362.9940000000001,95.81,270.434,111.654,136.774,174.828,99.93999999999998,29.454000000000004,0.0,0.0,0.0,0.0,0.0,0.0,0.0,0.0,0.0,0.0,17.672,104.138,212.407,303.477,371.796,431.3809999999999,408.56299999999993,403.959,333.946,382.562,312.618,220.464,103.52899999999998,25.933,0.0,0.0,0.0,0.0,0.0,0.0,0.0,0.0,0.0,0.0,18.553,97.638,203.198,299.279,370.713,418.0419999999999,440.658,402.604,392.38,334.556,281.606,180.04100000000005,109.013,26.272,0.0,0.0,0.0,0.0,0.0,0.0,0.0,0.0,0.0,0.0,16.995,74.82,202.182,296.706,297.925,182.75,448.51200000000006,382.968,414.386,369.9,300.498,207.261,86.601,27.152,0.0,0.0,0.0,0.0,0.0,0.0,0.0,0.0,0.0,0.0,16.724,96.216,205.703,302.326,377.484,426.371,430.626,329.403,289.404,301.478,293.956,213.558,109.826,25.12,0.0,0.0,0.0,0.0,0.0,0.0,0.0,0.0,0.0,0.0,16.995,95.268,201.032,288.27,306.589,249.08,227.974,221.941,147.631,121.486,172.509,184.781,76.106,24.105,0.0,0.0,0.0,0.0,0.0,0.0,0.0,0.0,0.0,0.0,16.521,92.831,197.375,293.253,368.14,420.548,445.939,447.835,422.782,375.9940000000001,302.597,208.615,105.696,23.021000000000004,0.0,0.0,0.0,0.0,0.0,0.0,0.0,0.0,0.0,0.0,15.709,77.528,195.885,283.096,353.108,409.172,432.939,385.745,297.789,326.227,302.529,206.58400000000003,104.748,23.834,0.0,0.0,0.0,0.0,0.0,0.0,0.0,0.0,0.0,0.0,5.485,56.741,133.931,222.42800000000005,253.845,372.47300000000007,377.823,356.765,291.966,272.262,212.068,116.8,78.544,0.0,0.0,0.0,0.0,0.0,0.0,0.0,0.0,0.0,0.0,0.0,9.412,98.044,214.912,320.607,403.891,242.199,490.424,485.008,458.262,248.564,241.92800000000005,229.266,113.414,22.818,0.0,0.0,0.0,0.0,0.0,0.0,0.0,0.0,0.0,0.0,14.49,97.232,206.787,303.341,324.196,439.032,300.498,302.935,314.243,277.815,319.66,222.42800000000005,109.68999999999998,22.344,0.0,0.0,0.0,0.0,0.0,0.0,0.0,0.0,0.0,0.0,13.203,95.53900000000002,207.87,305.102,377.28,416.122,378.21600000000007,315.897,286.473,301.839,286.963,183.156,92.492,19.839,0.0,0.0,0.0,0.0,0.0,0.0,0.0,0.0,0.0,0.0,13.203,90.799,198.188,259.181,288.473,212.171,206.606,212.045,218.862,228.001,226.423,212.339,104.003,20.652,0.0,0.0,0.0,0.0,0.0,0.0,0.0,0.0,0.0,0.0,2.9119999999999995,78.002,154.244,256.554,328.462,312.211,309.774,289.732,270.773,168.057,51.93399999999999,59.585,55.72500000000001,20.381,0.0,0.0,0.0,0.0,0.0,0.0,0.0,0.0,0.0,0.0,13.203,92.492,205.162,306.93,386.62500000000006,439.77699999999993,465.44,428.558,332.05,394.818,318.034,215.386,106.77899999999998,20.178,0.0,0.0,0.0,0.0,0.0,0.0,0.0,0.0,0.0,0.0,11.578,94.659,215.318,273.346,401.386,452.101,475.596,475.054,409.579,316.071,236.308,185.052,70.419,20.11,0.0,0.0,0.0,0.0,0.0,0.0,0.0,0.0,0.0,0.0,4.74,59.65299999999999,80.643,39.746,48.00600000000001,283.435,272.94,275.174,361.572,317.019,253.778,141.311,31.147,19.501,0.0,0.0,0.0,0.0,0.0,0.0,0.0,0.0,0.0,0.0,7.99,25.053,59.923,171.103,209.563,285.601,261.293,438.965,408.83400000000006,352.025,275.986,186.06700000000004,70.148,10.63,0.0,0.0,0.0,0.0,0.0,0.0,0.0,0.0,0.0,0.0,8.599,64.46,103.18999999999998,202.521,124.79,281.742,207.938,281.945,233.397,334.082,142.936,52.543,94.049,15.302,0.0,0.0,0.0,0.0,0.0,0.0,0.0,0.0,0.0,0.0,10.292,77.325,151.197,208.818,270.76,274.512,196.623,189.236,192.985,193.132,210.927,200.49,79.695,16.589,0.0,0.0,0.0,0.0,0.0,0.0,0.0,0.0,0.0,0.0,1.7600000000000002,56.80899999999999,99.263,64.054,122.284,197.849,164.062,270.57,261.564,195.479,282.487,91.95000000000002,84.773,15.302,0.0,0.0,0.0,0.0,0.0,0.0,0.0,0.0,0.0,0.0,8.125,69.809,4.537,169.208,206.58400000000003,211.526,277.002,342.952,355.478,200.557,250.054,172.119,72.45,14.896,0.0,0.0,0.0,0.0,0.0,0.0,0.0,0.0,0.0,0.0,9.005,79.966,183.291,252.491,353.176,398.542,240.845,309.842,337.467,252.356,177.671,160.473,59.043,12.933,0.0,0.0,0.0,0.0,0.0,0.0,0.0,0.0,0.0,0.0,8.058,32.298,68.997,116.191,265.965,194.193,462.054,458.127,431.991,373.354,297.925,179.974,87.075,13.407,0.0,0.0,0.0,0.0,0.0,0.0,0.0,0.0,0.0,0.0,6.839,79.492,186.54100000000005,288.445,368.614,422.376,448.241,449.528,423.2559999999999,370.781,292.508,191.958,88.565,11.511,0.0,0.0,0.0,0.0,0.0,0.0,0.0,0.0,0.0,0.0,7.11,81.32,192.364,297.789,380.193,423.679,357.048,317.234,238.204,319.998,245.44900000000004,198.797,80.237,11.917,0.0,0.0,0.0,0.0,0.0,0.0,0.0,0.0,0.0,0.0,4.74,59.111,88.023,236.647,282.533,297.053,211.364,233.921,223.794,249.29400000000004,120.795,88.633,37.241,3.453,0.0,0.0,0.0,0.0,0.0,0.0,0.0,0.0,0.0,0.0,5.891,77.528,184.646,289.867,368.343,419.6,343.967,448.03800000000007,418.17800000000005,368.208,293.117,192.974,82.742,9.412,0.0,0.0,0.0,0.0,0.0,0.0,0.0,0.0,0.0,0.0,5.417,76.445,186.812,286.211,362.791,412.422,315.665,437.814,137.79,321.691,42.048,70.96,37.241,3.318,0.0,0.0,0.0,0.0,0.0,0.0,0.0,0.0,0.0,0.0,4.807,74.549,182.885,274.497,347.421,393.667,417.636,415.808,392.99,346.676,276.19,182.07300000000004,78.95,7.99,0.0,0.0,0.0,0.0,0.0,0.0,0.0,0.0,0.0,0.0,4.74,75.361,189.791,295.758,379.515,383.172,368.14,317.357,333.337,291.628,218.975,160.134,59.043,6.162,0.0,0.0,0.0,0.0,0.0,0.0,0.0,0.0,0.0,0.0,1.7600000000000002,48.548,146.051,238.61000000000004,350.265,302.935,117.545,197.51,411.61,239.829,278.695,114.227,42.387,5.011,0.0,0.0,0.0,0.0,0.0,0.0,0.0,0.0,0.0,0.0,3.115,72.382,181.802,288.716,370.983,419.261,339.43,382.019,213.025,233.385,268.049,185.458,77.257,6.026,0.0,0.0,0.0,0.0,0.0,0.0,0.0,0.0,0.0,0.0,3.182,74.955,193.922,263.037,288.351,211.122,222.421,238.378,230.722,64.471,57.184,68.951,64.724,4.672,0.0,0.0,0.0,0.0,0.0,0.0,0.0,0.0,0.0,0.0,2.776,72.315,184.984,220.95400000000004,199.271,141.008,139.768,153.378,162.123,165.523,170.0,138.144,73.059,4.266,0.0,0.0,0.0,0.0,0.0,0.0,0.0,0.0,0.0,0.0,2.234,70.825,183.427,205.879,178.436,101.15,102.501,118.966,125.078,126.158,286.346,180.312,71.637,3.724,0.0,0.0,0.0,0.0,0.0,0.0,0.0,0.0,0.0,0.0,1.625,68.59,181.802,250.866,369.968,423.797,435.9,450.611,423.73,363.062,281.877,175.775,67.981,2.505,0.0,0.0,0.0,0.0,0.0,0.0,0.0,0.0,0.0,0.0,1.557,50.647,181.26,287.159,370.51,414.165,361.0990000000001,392.854,334.285,360.015,275.716,171.374,65.747,1.964,0.0,0.0,0.0,0.0,0.0,0.0,0.0,0.0,0.0,0.0,0.542,64.46,173.473,277.612,289.935,354.056,409.917,447.835,319.253,287.7,240.574,176.927,66.965,0.542,0.0,0.0,0.0,0.0,0.0,0.0,0.0,0.0,0.0,0.0,0.0,67.778,182.07300000000004,286.414,365.77,364.348,385.078,318.034,285.198,299.995,269.148,147.879,43.605,0.0,0.0,0.0,0.0,0.0,0.0,0.0,0.0,0.0,0.0,0.0,0.0,57.486,127.43,153.905,277.882,211.12,257.637,195.953,207.802,184.713,165.348,44.96,49.56400000000001,0.0,0.0,0.0,0.0,0.0,0.0,0.0,0.0,0.0,0.0,0.0,0.0,15.709,46.855,178.416,167.718,87.752,198.865,207.667,270.299,162.843,60.194,122.42,59.788,0.0,0.0,0.0,0.0,0.0,0.0,0.0,0.0,0.0,0.0,0.0,0.0,65.137,181.802,286.888,371.187,422.714,446.074,441.809,412.626,356.832,268.2,165.145,57.824,0.0,0.0,0.0,0.0,0.0,0.0,0.0,0.0,0.0,0.0,0.0,0.0,61.887,174.354,282.69,362.9940000000001,415.74,437.543,370.781,289.529,344.78,239.355,145.848,33.72,0.0,0.0,0.0,0.0,0.0,0.0,0.0,0.0,0.0,0.0,0.0,0.0,40.084,146.051,246.736,316.342,342.478,136.368,133.728,209.08900000000003,254.996,192.568,61.21,26.204000000000004,0.0,0.0,0.0,0.0,0.0,0.0,0.0,0.0,0.0,0.0,0.0,0.0,39.881,67.981,214.032,249.85,298.805,374.031,376.536,324.128,159.39,262.174,155.259,52.746,0.0,0.0,0.0,0.0,0.0,0.0,0.0,0.0,0.0,0.0,0.0,0.0,61.075,180.989,296.367,332.949,306.429,241.243,257.307,252.108,205.474,180.881,162.978,51.392,0.0,0.0,0.0,0.0,0.0,0.0,0.0,0.0,0.0,0.0,0.0,0.0,43.741,173.27,273.103,292.647,251.994,217.701,233.003,224.737,246.131,244.861,154.785,48.413,0.0,0.0,0.0,0.0,0.0,0.0,0.0,0.0,0.0,0.0,0.0,0.0,56.335,168.395,278.627,296.564,254.687,220.313,228.986,234.847,238.972,249.351,154.176,47.668,0.0,0.0,0.0,0.0,0.0,0.0,0.0,0.0,0.0,0.0,0.0,0.0,56.335,167.921,274.565,358.525,411.542,435.715,431.51700000000005,399.084,335.978,254.252,148.014,44.621,0.0,0.0,0.0,0.0,0.0,0.0,0.0,0.0,0.0,0.0,0.0,0.0,47.12599999999999,148.15,22.141,274.361,406.938,427.86,421.089,384.458,328.259,244.43400000000003,141.785,41.845,0.0,0.0,0.0,0.0,0.0,0.0,0.0,0.0,0.0,0.0,0.0,0.0,16.521,50.986,163.791,176.385,403.485,300.972,160.676,196.901,345.525,233.397,88.768,35.683,0.0,0.0,0.0,0.0,0.0,0.0,0.0,0.0,0.0,0.0,0.0,0.0,57.35000000000001,179.093,293.727,382.29100000000005,438.965,464.627,461.715,432.397,371.322,280.117,159.864,42.251,0.0,0.0,0.0,0.0,0.0,0.0,0.0,0.0,0.0,0.0,0.0,0.0,57.012,182.208,297.654,383.172,427.86,372.726,329.666,305.194,306.214,268.403,150.316,39.204,0.0,0.0,0.0,0.0,0.0,0.0,0.0,0.0,0.0,0.0,0.0,0.0,56.06400000000001,179.567,253.972,294.324,229.72300000000004,231.041,219.211,242.278,228.97,253.592,151.197,38.324,0.0,0.0,0.0,0.0,0.0,0.0,0.0,0.0,0.0,0.0,0.0,0.0,54.71,177.942,291.357,372.3380000000001,426.9119999999999,450.814,445.939,411.948,353.176,259.533,147.202,35.886,0.0,0.0,0.0,0.0,0.0,0.0,0.0,0.0,0.0,0.0,0.0,0.0,53.085,173.541,282.351,358.525,417.027,439.032,433.48,401.521,332.931,248.29300000000003,138.806,32.772,0.0,0.0,0.0,0.0,0.0,0.0,0.0,0.0,0.0,0.0,0.0,0.0,49.428,163.994,269.148,344.035,390.349,419.126,266.304,226.964,211.594,130.545,49.56400000000001,11.917,0.0,0.0,0.0,0.0,0.0,0.0,0.0,0.0,0.0,0.0,0.0,0.0,15.167,41.642,108.81,145.035,173.947,184.57800000000003,187.354,148.421,130.884,169.478,117.274,19.974,0.0,0.0,0.0,0.0,0.0,0.0,0.0,0.0,0.0,0.0,0.0,0.0,43.131,74.346,166.838,205.5,159.322,285.737,269.148,292.305,324.196,228.79300000000003,83.622,23.360000000000003,0.0,0.0,0.0,0.0,0.0,0.0,0.0,0.0,0.0,0.0,0.0,0.0,2.9119999999999995,117.68,136.097,286.955,297.044,322.977,247.277,237.12100000000004,123.91,126.009,96.622,17.672,0.0,0.0,0.0,0.0,0.0,0.0,0.0,0.0,0.0,0.0,0.0,0.0,20.787,74.684,82.471,190.671,309.435,303.612,208.479,222.631,229.537,206.651,111.993,21.938,0.0,0.0,0.0,0.0,0.0,0.0,0.0,0.0,0.0,0.0,0.0,0.0,42.522,151.738,188.57300000000004,343.9,396.037,409.511,343.967,372.81200000000007,313.024,225.136,115.378,21.735,0.0,0.0,0.0,0.0,0.0,0.0,0.0,0.0,0.0,0.0,0.0,0.0,38.527,137.452,237.25600000000003,316.206,368.275,391.5,387.5729999999999,358.728,302.935,218.771,110.706,20.584,0.0,0.0,0.0,0.0,0.0,0.0,0.0,0.0,0.0,0.0,0.0,0.0,20.245,150.046,159.66,221.412,393.125,183.02,196.495,310.045,306.185,214.98,107.185,17.74,0.0,0.0,0.0,0.0,0.0,0.0,0.0,0.0,0.0,0.0,0.0,0.0,39.407,132.983,137.519,277.138,265.491,133.66,70.689,85.992,131.019,26.881,1.693,0.0,0.0,0.0,0.0,0.0,0.0,0.0,0.0,0.0,0.0,0.0,0.0,0.0,0.0,31.079000000000004,149.369,284.45,414.2509999999999,438.965,325.144,402.401,333.879,235.022,116.461,18.146,0.0,0.0,0.0,0.0,0.0,0.0,0.0,0.0,0.0,0.0,0.0,0.0,43.47,169.478,291.763,378.093,417.18,327.075,279.19,180.052,170.952,199.196,117.206,17.808,0.0,0.0,0.0,0.0,0.0,0.0,0.0,0.0,0.0,0.0,0.0,0.0,0.0,6.162,63.918,126.61799999999998,69.809,132.306,176.114,227.709,125.128,53.83,88.023,3.792,0.0,0.0,0.0,0.0,0.0,0.0,0.0,0.0,0.0,0.0,0.0,0.0,29.792,129.665,236.715,129.191,144.29,312.279,322.706,149.639,231.839,114.904,98.18,11.511,0.0,0.0,0.0,0.0,0.0,0.0,0.0,0.0,0.0,0.0,0.0,0.0,34.668,144.223,256.757,343.493,403.62,425.761,418.245,379.38,307.607,212.474,99.534,11.104,0.0,0.0,0.0,0.0,0.0,0.0,0.0,0.0,0.0,0.0,0.0,0.0,31.485,136.504,250.527,340.176,397.255,416.756,408.631,371.525,305.508,199.474,97.232,10.089,0.0,0.0,0.0,0.0,0.0,0.0,0.0,0.0,0.0,0.0,0.0,0.0,9.479,145.374,257.028,335.707,385.339,404.5679999999999,396.376,362.723,298.331,207.193,93.982,8.735,0.0,0.0,0.0,0.0,0.0,0.0,0.0,0.0,0.0,0.0,0.0,0.0,0.0,15.709,48.954,271.518,258.653,366.921,394.005,357.848,163.655,89.107,88.836,5.485,0.0,0.0,0.0,0.0,0.0,0.0,0.0,0.0,0.0,0.0,0.0,0.0,16.115,68.049,137.452,216.808,187.083,87.752,91.409,168.598,197.443,62.226,85.382,3.927,0.0,0.0,0.0,0.0,0.0,0.0,0.0,0.0,0.0,0.0,0.0,0.0,30.131,141.108,115.852,86.466,131.832,214.844,166.296,187.49,278.772,200.015,86.872,3.656,0.0,0.0,0.0,0.0,0.0,0.0,0.0,0.0,0.0,0.0,0.0,0.0,28.709,133.254,236.511,192.5,232.855,188.708,283.028,295.216,276.393,186.338,37.918,0.0,0.0,0.0,0.0,0.0,0.0,0.0,0.0,0.0,0.0,0.0,0.0,0.0,26.407000000000004,131.29,243.689,331.983,385.135,131.222,298.805,306.524,288.716,190.062,21.6,0.0,0.0,0.0,0.0,0.0,0.0,0.0,0.0,0.0,0.0,0.0,0.0,0.0,26.339,130.477,240.777,322.774,377.416,341.394,391.6350000000001,277.476,245.991,187.354,70.486,0.0,0.0,0.0,0.0,0.0,0.0,0.0,0.0,0.0,0.0,0.0,0.0,0.0,21.396,38.73,129.868,103.596,288.377,290.883,169.478,138.129,136.707,96.419,0.0,0.0,0.0,0.0,0.0,0.0,0.0,0.0,0.0,0.0,0.0,0.0,0.0,0.0,29.792,147.54,270.096,364.077,429.0110000000001,181.057,157.088,106.43999999999998,108.81,133.728,11.443,0.0,0.0,0.0,0.0,0.0,0.0,0.0,0.0,0.0,0.0,0.0,0.0,0.0,26.068,19.433,136.978,238.746,279.846,413.308,376.916,277.298,273.729,198.797,78.205,0.0,0.0,0.0,0.0,0.0,0.0,0.0,0.0,0.0,0.0,0.0,0.0,0.0,27.152,136.707,247.278,268.017,242.463,200.101,215.31,227.316,220.719,192.635,76.038,0.0,0.0,0.0,0.0,0.0,0.0,0.0,0.0,0.0,0.0,0.0,0.0,0.0,28.032000000000004,142.936,234.8,259.726,182.999,177.09,172.298,188.913,187.196,192.432,74.684,0.0,0.0,0.0,0.0,0.0,0.0,0.0,0.0,0.0,0.0,0.0,0.0,0.0,23.360000000000003,127.295,238.407,318.779,284.315,349.858,393.464,352.364,280.997,178.484,66.762,0.0,0.0,0.0,0.0,0.0,0.0,0.0,0.0,0.0,0.0,0.0,0.0,0.0,20.922,123.232,235.767,326.092,382.968,408.0210000000001,400.641,359.94700000000006,289.258,184.104,66.898,0.0,0.0,0.0,0.0,0.0,0.0,0.0,0.0,0.0,0.0,0.0,0.0,0.0,0.677,83.283,176.994,171.984,222.563,143.952,308.555,189.724,280.726,180.921,66.221,0.0,0.0,0.0,0.0,0.0,0.0,0.0,0.0,0.0,0.0,0.0,0.0,0.0,23.157000000000004,134.743,255.741,346.406,404.297,414.511,329.405,306.812,298.737,189.995,67.033,0.0,0.0,0.0,0.0,0.0,0.0,0.0,0.0,0.0,0.0,0.0,0.0,0.0,22.615,115.04,260.752,287.294,312.173,200.711,178.877,140.529,152.885,147.616,49.56400000000001,0.0,0.0,0.0,0.0,0.0,0.0,0.0,0.0,0.0,0.0,0.0,0.0,0.0,0.0,6.568,31.011,37.241,37.037,105.086,73.127,184.511,182.072,93.44,33.043,0.0,0.0,0.0,0.0,0.0,0.0,0.0,0.0,0.0,0.0,0.0,0.0,0.0,18.417,41.235,69.132,97.638,149.504,98.247,149.03,165.551,164.671,52.069,58.976,0.0,0.0,0.0,0.0,0.0,0.0,0.0,0.0,0.0,0.0,0.0,0.0,0.0,4.537,22.074,106.373,152.348,402.401,425.423,299.753,270.502,288.445,176.046,55.116,0.0,0.0,0.0,0.0,0.0,0.0,0.0,0.0,0.0,0.0,0.0,0.0,0.0,15.573000000000002,121.201,246.126,341.801,403.755,426.845,414.657,366.853,285.872,76.851,20.787,0.0,0.0,0.0,0.0,0.0,0.0,0.0,0.0,0.0,0.0,0.0,0.0,0.0,16.657,126.61799999999998,254.996,350.468,413.09899999999993,437.678,428.876,380.734,294.878,178.89,54.10000000000001,0.0,0.0,0.0,0.0,0.0,0.0,0.0,0.0,0.0,0.0,0.0,0.0,0.0,13.813,117.68,182.682,327.649,388.453,411.745,399.96400000000006,353.989,272.804,162.504,45.97500000000001,0.0,0.0,0.0,0.0,0.0,0.0,0.0,0.0,0.0,0.0,0.0,0.0,0.0,3.927,72.924,152.889,229.673,252.83,339.293,339.927,261.824,199.271,174.76,51.053,0.0,0.0,0.0,0.0,0.0,0.0,0.0,0.0,0.0,0.0,0.0,0.0,0.0,0.339,12.73,40.694,100.61700000000002,91.206,35.277,85.653,75.023,13.339,24.24,7.516,0.0,0.0,0.0,0.0,0.0,0.0,0.0,0.0,0.0,0.0,0.0,0.0,0.0,11.375,120.253,249.241,350.535,222.766,261.835,172.661,233.6,180.38,169.004,17.063,0.0,0.0,0.0,0.0,0.0,0.0,0.0,0.0,0.0,0.0,0.0,0.0,0.0,0.0,30.537,117.545,357.441,159.728,241.319,186.40600000000003,162.707,293.997,170.697,16.589,0.0,0.0,0.0,0.0,0.0,0.0,0.0,0.0,0.0,0.0,0.0,0.0,0.0,10.834,118.764,245.246,341.259,400.166,423.026,391.003,338.877,281.336,164.806,42.996,0.0,0.0,0.0,0.0,0.0,0.0,0.0,0.0,0.0,0.0,0.0,0.0,0.0,0.0,104.815,227.167,325.889,388.183,415.943,410.12,250.189,235.157,163.791,40.897,0.0,0.0,0.0,0.0,0.0,0.0,0.0,0.0,0.0,0.0,0.0,0.0,0.0,0.0,111.857,233.735,327.581,384.458,406.532,393.599,351.212,270.705,157.494,39.407,0.0,0.0,0.0,0.0,0.0,0.0,0.0,0.0,0.0,0.0,0.0,0.0,0.0,0.0,105.018,223.57800000000003,310.451,329.802,238.743,217.40100000000004,188.11,190.891,141.176,34.058,0.0,0.0,0.0,0.0,0.0,0.0,0.0,0.0,0.0,0.0,0.0,0.0,0.0,0.0,16.86,56.46999999999999,78.476,105.086,48.074,243.486,200.219,107.524,40.017,6.228999999999999,0.0,0.0,0.0,0.0,0.0,0.0,0.0,0.0,0.0,0.0,0.0,0.0,0.0,0.0,0.135,0.0,35.277,14.084,152.686,17.875,88.768,31.011,16.183,0.609,0.0,0.0,0.0,0.0,0.0,0.0,0.0,0.0,0.0,0.0,0.0,0.0,0.0,0.0,5.958,4.198,28.709,59.246,64.934,83.419,128.311,5.214,50.444,6.703,0.0,0.0,0.0,0.0,0.0,0.0,0.0,0.0,0.0,0.0,0.0,0.0,0.0,0.0,90.393,210.308,306.524,370.307,201.912,86.466,141.04,70.215,35.683,4.401,0.0,0.0,0.0,0.0,0.0,0.0,0.0,0.0,0.0,0.0,0.0,0.0,0.0,0.0,86.263,209.427,310.857,378.3639999999999,403.823,391.5,159.254,258.856,141.92,29.589,0.0,0.0,0.0,0.0,0.0,0.0,0.0,0.0,0.0,0.0,0.0,0.0,0.0,0.0,95.607,219.516,313.092,370.577,398.3380000000001,381.75,333.947,251.94900000000004,126.61799999999998,25.527,0.0,0.0,0.0,0.0,0.0,0.0,0.0,0.0,0.0,0.0,0.0,0.0,0.0,0.0,25.053,90.732,250.25600000000003,90.732,116.732,40.829,80.169,79.966,130.139,23.225,0.0,0.0,0.0,0.0,0.0,0.0,0.0,0.0,0.0,0.0,0.0,0.0,0.0,0.0,7.99,42.996,2.573,51.527,78.476,172.322,185.052,96.622,30.605,20.313,0.0,0.0,0.0,0.0,0.0,0.0,0.0,0.0,0.0,0.0,0.0,0.0,0.0,0.0,6.094,120.592,6.094,18.214,78.746,64.054,152.009,9.209,23.834,0.813,0.0,0.0,0.0,0.0,0.0,0.0,0.0,0.0,0.0,0.0,0.0,0.0,0.0,0.0,84.435,205.5,302.055,365.702,391.365,385.135,335.301,249.444,133.524,23.562999999999995,0.0,0.0,0.0,0.0,0.0,0.0,0.0,0.0,0.0,0.0,0.0,0.0,0.0,0.0,83.893,204.07800000000003,299.685,180.04100000000005,167.786,174.895,183.291,183.698,54.10000000000001,4.469,0.0,0.0,0.0,0.0,0.0,0.0,0.0,0.0,0.0,0.0,0.0,0.0,0.0,0.0,75.226,192.161,291.086,348.03,372.406,363.332,315.123,233.126,123.02899999999998,20.516,0.0,0.0,0.0,0.0,0.0,0.0,0.0,0.0,0.0,0.0,0.0,0.0,0.0,0.0,81.929,208.547,306.117,363.536,387.098,371.932,317.222,237.25600000000003,124.045,19.771,0.0,0.0,0.0,0.0,0.0,0.0,0.0,0.0,0.0,0.0,0.0,0.0,0.0,0.0,17.469,150.113,170.629,33.449,36.97,86.398,49.835,3.25,6.974000000000001,0.0,0.0,0.0,0.0,0.0,0.0,0.0,0.0,0.0,0.0,0.0,0.0,0.0,0.0,0.0,82.064,167.216,187.575,138.131,114.707,116.662,123.296,124.049,123.988,22.48,0.0,0.0,0.0,0.0,0.0,0.0,0.0,0.0,0.0,0.0,0.0,0.0,0.0,0.0,78.341,205.636,308.825,291.357,402.6720000000001,384.662,338.348,249.715,76.648,4.74,0.0,0.0,0.0,0.0,0.0,0.0,0.0,0.0,0.0,0.0,0.0,0.0,0.0,0.0,76.919,205.433,307.404,309.571,298.128,330.493,285.33,206.177,113.14400000000002,6.365,0.0,0.0,0.0,0.0,0.0,0.0,0.0,0.0,0.0,0.0,0.0,0.0,0.0,0.0,4.672,22.48,10.698,38.527,66.153,140.025,45.704,137.587,107.727,10.698,0.0,0.0,0.0,0.0,0.0,0.0,0.0,0.0,0.0,0.0,0.0,0.0,0.0,0.0,0.0,34.058,38.527,100.956,34.397,80.237,72.247,52.205,8.328,0.0,0.0,0.0,0.0,0.0,0.0,0.0,0.0,0.0,0.0,0.0,0.0,0.0,0.0,0.0,51.93399999999999,156.614,245.246,80.575,96.013,208.344,294.065,221.344,109.89400000000002,10.698,0.0,0.0,0.0,0.0,0.0,0.0,0.0,0.0,0.0,0.0,0.0,0.0,0.0,0.0,63.038,184.849,289.528,325.005,311.948,214.082,214.158,180.751,118.764,0.0,0.0,0.0,0.0,0.0,0.0,0.0,0.0,0.0,0.0,0.0,0.0,0.0,0.0,0.0,47.871,138.535,235.556,238.867,182.414,142.709,150.054,149.265,109.758,0.0,0.0,0.0,0.0,0.0,0.0,0.0,0.0,0.0,0.0,0.0,0.0,0.0,0.0,0.0,31.418000000000003,117.274,193.042,205.5,192.364,68.252,10.834,0.0,12.73,0.0,0.0,0.0,0.0,0.0,0.0,0.0,0.0,0.0,0.0,0.0,0.0,0.0,0.0,0.0,1.49,8.193,67.507,79.221,48.75099999999999,35.683,24.443,48.142,24.037,0.0,0.0,0.0,0.0,0.0,0.0,0.0,0.0,0.0,0.0,0.0,0.0,0.0,0.0,0.0,37.173,13.339,25.053,101.497,74.075,83.148,124.993,45.84,31.824,0.0,0.0,0.0,0.0,0.0,0.0,0.0,0.0,0.0,0.0,0.0,0.0,0.0,0.0,0.0,22.074,120.45699999999998,162.69,159.692,110.922,128.486,124.804,96.69,124.519,0.0,0.0,0.0,0.0,0.0,0.0,0.0,0.0,0.0,0.0,0.0,0.0,0.0,0.0,0.0,58.163,180.515,210.375,261.7,293.32,352.16,232.72,148.15,115.987,0.0,0.0,0.0,0.0,0.0,0.0,0.0,0.0,0.0,0.0,0.0,0.0,0.0,0.0,0.0,22.006,139.754,101.159,151.061,208.548,200.151,125.467,132.644,41.574,0.0,0.0,0.0,0.0,0.0,0.0,0.0,0.0,0.0,0.0,0.0,0.0,0.0,0.0,0.0,45.50099999999999,162.436,99.93999999999998,79.695,86.804,76.445,43.876,7.853999999999999,5.958,0.0,0.0,0.0,0.0,0.0,0.0,0.0,0.0,0.0,0.0,0.0,0.0,0.0,0.0,0.0,51.392,178.822,289.935,359.135,385.542,374.37,323.451,232.652,113.482,0.0,0.0,0.0,0.0,0.0,0.0,0.0,0.0,0.0,0.0,0.0,0.0,0.0,0.0,0.0,43.402,159.39,266.71,336.723,363.942,354.733,307.201,222.495,107.05,0.0,0.0,0.0,0.0,0.0,0.0,0.0,0.0,0.0,0.0,0.0,0.0,0.0,0.0,0.0,45.84,162.437,191.687,334.149,292.982,348.775,299.279,213.693,102.107,0.0,0.0,0.0,0.0,0.0,0.0,0.0,0.0,0.0,0.0,0.0,0.0,0.0,0.0,0.0,40.017,151.806,252.965,317.696,343.493,328.191,279.507,200.557,97.164,0.0,0.0,0.0,0.0,0.0,0.0,0.0,0.0,0.0,0.0,0.0,0.0,0.0,0.0,0.0,1.625,19.704,37.511,180.109,51.527,58.569,71.163,49.22500000000001,21.329,0.0,0.0,0.0,0.0,0.0,0.0,0.0,0.0,0.0,0.0,0.0,0.0,0.0,0.0,0.0,35.683,146.322,70.554,124.31600000000002,132.576,210.647,61.955,207.464,95.471,0.0,0.0,0.0,0.0,0.0,0.0,0.0,0.0,0.0,0.0,0.0,0.0,0.0,0.0,0.0,26.339,114.43,193.651,200.219,138.304,116.58700000000002,101.878,79.141,77.083,0.0,0.0,0.0,0.0,0.0,0.0,0.0,0.0,0.0,0.0,0.0,0.0,0.0,0.0,0.0,5.417,42.183,75.768,148.556,31.891,153.702,44.215,30.131,12.256,0.0,0.0,0.0,0.0,0.0,0.0,0.0,0.0,0.0,0.0,0.0,0.0,0.0,0.0,0.0,33.178,143.816,246.803,126.076,141.108,147.134,159.322,114.227,56.06400000000001,0.0,0.0,0.0,0.0,0.0,0.0,0.0,0.0,0.0,0.0,0.0,0.0,0.0,0.0,0.0,28.845,138.061,38.256,49.361,50.918,38.392,163.859,119.915,60.53300000000001,0.0,0.0,0.0,0.0,0.0,0.0,0.0,0.0,0.0,0.0,0.0,0.0,0.0,0.0,0.0,9.344,84.773,155.936,191.891,154.988,206.313,96.081,212.068,98.654,0.0,0.0,0.0,0.0,0.0,0.0,0.0,0.0,0.0,0.0,0.0,0.0,0.0,0.0,0.0,3.656,36.97,67.981,142.598,143.004,136.571,86.872,60.601,109.826,0.0,0.0,0.0,0.0,0.0,0.0,0.0,0.0,0.0,0.0,0.0,0.0,0.0,0.0,0.0,19.365,148.691,46.043,136.436,143.681,187.693,168.124,119.441,55.522,0.0,0.0,0.0,0.0,0.0,0.0,0.0,0.0,0.0,0.0,0.0,0.0,0.0,0.0,0.0,3.115,35.142,65.204,87.414,93.034,87.143,71.705,49.09,20.584,0.0,0.0,0.0,0.0,0.0,0.0,0.0,0.0,0.0,0.0,0.0,0.0,0.0,0.0,0.0,0.0,0.0,0.0,10.292,24.579,32.636,33.855,22.074,7.853999999999999,0.0,0.0,0.0,0.0,0.0,0.0,0.0,0.0,0.0,0.0,0.0,0.0,0.0,0.0,0.0,27.423,140.905,250.392,323.925,357.51,346.676,220.735,160.27,77.596,0.0,0.0,0.0,0.0,0.0,0.0,0.0,0.0,0.0,0.0,0.0,0.0,0.0,0.0,0.0,0.0,3.5210000000000004,10.495,39.475,242.808,355.681,313.701,227.777,113.008,0.0,0.0,0.0,0.0,0.0,0.0,0.0,0.0,0.0,0.0,0.0,0.0,0.0,0.0,0.0,7.787000000000001,88.7,161.895,161.895,151.806,213.829,180.583,132.509,66.221,0.0,0.0,0.0,0.0,0.0,0.0,0.0,0.0,0.0,0.0,0.0,0.0,0.0,0.0,0.0,13.813,146.254,258.991,203.875,210.44300000000004,198.391,156.41,112.873,53.423,0.0,0.0,0.0,0.0,0.0,0.0,0.0,0.0,0.0,0.0,0.0,0.0,0.0,0.0,0.0,0.0,3.656,10.698,16.995,8.735,15.709,18.282,11.917,3.589,0.0,0.0,0.0,0.0,0.0,0.0,0.0,0.0,0.0,0.0,0.0,0.0,0.0,0.0,0.0,6.026,110.164,213.354,27.897,74.549,60.53300000000001,60.804,41.642,17.537,0.0,0.0,0.0,0.0,0.0,0.0,0.0,0.0,0.0,0.0,0.0,0.0,0.0,0.0,0.0,26.812999999999995,154.176,280.726,367.26,404.162,397.729,347.144,254.726,129.394,0.0,0.0,0.0,0.0,0.0,0.0,0.0,0.0,0.0,0.0,0.0,0.0,0.0,0.0,0.0,26.001,146.863,266.033,345.254,381.14,375.046,327.514,241.92800000000005,123.02899999999998,0.0,0.0,0.0,0.0,0.0,0.0,0.0,0.0,0.0,0.0,0.0,0.0,0.0,0.0,0.0,6.365,102.784,190.73900000000003,217.28200000000004,267.997,275.513,230.079,168.666,86.33,0.0,0.0,0.0,0.0,0.0,0.0,0.0,0.0,0.0,0.0,0.0,0.0,0.0,0.0,0.0,4.875,94.523,177.807,241.183,248.225,288.106,287.836,209.224,106.169,0.0,0.0,0.0,0.0,0.0,0.0,0.0,0.0,0.0,0.0,0.0,0.0,0.0,0.0,0.0,17.334,127.16,237.527,311.602,345.796,342.207,302.122,223.24,114.56600000000002,0.0,0.0,0.0,0.0,0.0,0.0,0.0,0.0,0.0,0.0,0.0,0.0,0.0,0.0,0.0,0.0,6.026,15.98,34.668,57.147,38.933,37.715,25.933,10.36,0.0,0.0,0.0,0.0,0.0,0.0,0.0,0.0,0.0,0.0,0.0,0.0,0.0,0.0,0.0,11.443,116.462,164.592,48.954,56.335,44.621,43.944,30.944,111.654,0.0,0.0,0.0,0.0,0.0,0.0,0.0,0.0,0.0,0.0,0.0,0.0,0.0,0.0,0.0,0.0,0.339,3.995,52.205,18.688,46.585,61.142,41.98,18.079,0.0,0.0,0.0,0.0,0.0,0.0,0.0,0.0,0.0,0.0,0.0,0.0,0.0,0.0,0.0,4.401,109.352,101.159,112.80500000000002,160.473,324.67,284.789,210.714,111.18,0.0,0.0,0.0,0.0,0.0,0.0,0.0,0.0,0.0,0.0,0.0,0.0,0.0,0.0,0.0,0.0,122.89400000000002,235.631,313.904,352.228,350.264,305.914,229.266,117.274,12.933,0.0,0.0,0.0,0.0,0.0,0.0,0.0,0.0,0.0,0.0,0.0,0.0,0.0,0.0,0.0,116.597,222.225,294.878,238.475,175.979,112.80500000000002,79.695,36.767,0.0,0.0,0.0,0.0,0.0,0.0,0.0,0.0,0.0,0.0,0.0,0.0,0.0,0.0,0.0,0.0,123.232,236.715,315.326,356.02,226.152,219.178,163.791,85.518,3.386,0.0,0.0,0.0,0.0,0.0,0.0,0.0,0.0,0.0,0.0,0.0,0.0,0.0,0.0,0.0,123.02899999999998,233.87,204.07800000000003,213.897,282.741,236.569,153.494,121.675,6.568,0.0,0.0,0.0,0.0,0.0,0.0,0.0,0.0,0.0,0.0,0.0,0.0,0.0,0.0,0.0,102.987,207.057,226.909,175.536,135.976,130.392,133.462,123.02899999999998,7.921999999999999,0.0,0.0,0.0,0.0,0.0,0.0,0.0]
...